Info: SIMULATION PARAMETERS:
Info: TIMESTEP               2
Info: NUMBER OF STEPS        0
Info: STEPS PER CYCLE        10
Info: PERIODIC CELL BASIS 1  30 0 0
Info: PERIODIC CELL BASIS 2  0 30 0
Info: PERIODIC CELL BASIS 3  0 0 30
Info: PERIODIC CELL CENTER   0 0 0
Info: WRAPPING ALL CLUSTERS AROUND PERIODIC BOUNDARIES ON OUTPUT.
Info: FIRST LDB TIMESTEP     50
Info: LAST LDB TIMESTEP     -1
Info: HOM BACKGROUND SCALING 1
Info: PME BACKGROUND SCALING 1
Info: MIN ATOMS PER PATCH    40
Info: INITIAL TEMPERATURE    300
Info: CENTER OF MASS MOVING INITIALLY? NO
Info: DIELECTRIC             1
Info: EXCLUDE                SCALED ONE-FOUR
Info: 1-4 ELECTROSTATICS SCALED BY 1
Info: MODIFIED 1-4 VDW PARAMETERS WILL BE USED
Info: DCD FILENAME           toluene.dcd
Info: DCD FREQUENCY          500
Info: DCD FIRST STEP         500
Info: DCD FILE WILL CONTAIN UNIT CELL DATA
Info: XST FILENAME           toluene.xst
Info: XST FREQUENCY          500
Info: NO VELOCITY DCD OUTPUT
Info: NO FORCE DCD OUTPUT
Info: OUTPUT FILENAME        toluene
Info: BINARY OUTPUT FILES WILL BE USED
Info: RESTART FILENAME       toluene.restart
Info: RESTART FREQUENCY      1000
Info: BINARY RESTART FILES WILL BE USED
Info: SWITCHING ACTIVE
Info: SWITCHING ON           10
Info: SWITCHING OFF          12
Info: PAIRLIST DISTANCE      13.5
Info: PAIRLIST SHRINK RATE   0.01
Info: PAIRLIST GROW RATE     0.01
Info: PAIRLIST TRIGGER       0.3
Info: PAIRLISTS PER CYCLE    2
Info: PAIRLISTS ENABLED
Info: MARGIN                 0.48
Info: HYDROGEN GROUP CUTOFF  2.5
Info: PATCH DIMENSION        16.48
Info: ENERGY OUTPUT STEPS    1000
Info: CROSSTERM ENERGY INCLUDED IN DIHEDRAL
Info: TIMING OUTPUT STEPS    10000
Info: PRESSURE OUTPUT STEPS  1000
Info: LANGEVIN DYNAMICS ACTIVE
Info: LANGEVIN TEMPERATURE   300
Info: LANGEVIN DAMPING COEFFICIENT IS 1 INVERSE PS
Info: LANGEVIN DYNAMICS NOT APPLIED TO HYDROGENS
Info: LANGEVIN PISTON PRESSURE CONTROL ACTIVE
Info:        TARGET PRESSURE IS 1.01325 BAR
Info:     OSCILLATION PERIOD IS 100 FS
Info:             DECAY TIME IS 50 FS
Info:     PISTON TEMPERATURE IS 300 K
Info:       PRESSURE CONTROL IS GROUP-BASED
Info:    INITIAL STRAIN RATE IS 0 0 0
Info:       CELL FLUCTUATION IS ISOTROPIC
Info: PARTICLE MESH EWALD (PME) ACTIVE
Info: PME TOLERANCE               1e-06
Info: PME EWALD COEFFICIENT       0.257952
Info: PME INTERPOLATION ORDER     4
Info: PME GRID DIMENSIONS         32 32 32
Info: PME MAXIMUM GRID SPACING    1
Info: FULL ELECTROSTATIC EVALUATION FREQUENCY      2
Info: USING VERLET I (r-RESPA) MTS SCHEME.
Info: C1 SPLITTING OF LONG RANGE ELECTROSTATICS
Info: PLACING ATOMS IN PATCHES BY HYDROGEN GROUPS
Info: RIGID BONDS TO HYDROGEN : ALL
Info:         ERROR TOLERANCE : 1e-08
Info:          MAX ITERATIONS : 100
Info: RIGID WATER USING SETTLE ALGORITHM
Info: RANDOM NUMBER SEED     1453720838
Info: USE HYDROGEN BONDS?    NO
Info: COORDINATE PDB         toluene.pdb
Info: STRUCTURE FILE         toluene.psf
Info: PARAMETER file: CHARMM format!
Info: PARAMETERS             /home/lytitia/work/include/toppar/par_all36_cgenff.prm
Info: PARAMETERS             /home/lytitia/work/include/toppar/toppar_water_ions.str.Letitia
Info: USING ARITHMETIC MEAN TO COMBINE L-J SIGMA PARAMETERS
Info: SUMMARY OF PARAMETERS:
Info: 456 BONDS
Info: 1388 ANGLES
Info: 3434 DIHEDRAL
Info: 104 IMPROPER
Info: 0 CROSSTERM
Info: 163 VDW
Info: 2 VDW_PAIRS
Info: 0 NBTHOLE_PAIRS
Info: STRUCTURE SUMMARY:
Info: 15 ATOMS
Info: 15 BONDS
Info: 24 ANGLES
Info: 30 DIHEDRALS
Info: 0 IMPROPERS
Info: 0 CROSSTERMS
Info: 0 EXCLUSIONS
Info: 8 RIGID BONDS
Info: 37 DEGREES OF FREEDOM
Info: 7 HYDROGEN GROUPS
Info: 4 ATOMS IN LARGEST HYDROGEN GROUP
Info: 7 MIGRATION GROUPS
Info: 4 ATOMS IN LARGEST MIGRATION GROUP
Info: TOTAL MASS = 92.141 amu
Info: TOTAL CHARGE = 3.17814e-08 e
Info: MASS DENSITY = 0.00566694 g/cm^3
Info: ATOM DENSITY = 0.000555556 atoms/A^3
Info: REMOVING COM VELOCITY -0.621668 -1.93192 1.62344
Info: NONBONDED TABLE R-SQUARED SPACING: 0.0625
Info: NONBONDED TABLE SIZE: 769 POINTS
TCL: Minimizing for 5000 steps
ETITLE: TS BOND ANGLE DIHED IMPRP ELECT VDW BOUNDARY MISC KINETIC TOTAL TEMP POTENTIAL TOTAL3 TEMPAVG PRESSURE GPRESSURE VOLUME PRESSAVG GPRESSAVG
ENERGY: 0 1.5682 1.5851 0.9160 0.0000 -6.2535 11.0109 0.0000 0.0000 0.0000 8.8268 0.0000 8.8268 8.8268 0.0000 26.3370 26.7871 27000.0000 26.3370 26.7871
ENERGY: 1000 1.3522 0.2530 0.0039 0.0000 -6.1702 10.3815 0.0000 0.0000 0.0000 5.8204 0.0000 5.8204 5.8204 0.0000 0.0236 0.0298 27000.0000 0.0236 0.0298
ENERGY: 2000 1.3525 0.2530 0.0038 0.0000 -6.1701 10.3811 0.0000 0.0000 0.0000 5.8204 0.0000 5.8204 5.8204 0.0000 0.0017 -0.0012 27000.0000 0.0017 -0.0012
ENERGY: 3000 1.3525 0.2530 0.0038 0.0000 -6.1701 10.3811 0.0000 0.0000 0.0000 5.8204 0.0000 5.8204 5.8204 0.0000 0.0017 -0.0012 27000.0000 0.0017 -0.0012
ENERGY: 4000 1.3525 0.2530 0.0038 0.0000 -6.1701 10.3811 0.0000 0.0000 0.0000 5.8204 0.0000 5.8204 5.8204 0.0000 0.0017 -0.0012 27000.0000 0.0017 -0.0012
ENERGY: 5000 1.3525 0.2530 0.0038 0.0000 -6.1701 10.3811 0.0000 0.0000 0.0000 5.8204 0.0000 5.8204 5.8204 0.0000 0.0017 -0.0012 27000.0000 0.0017 -0.0012
